opendss_networks/LV7_29bus/lines.dss
new line.L_161 lineCode=ugsc_16cu_xlpe/nyl/pvc_ug_4w_bundled bus1=B444 bus2=B408 length=0.00825151972502 units=km phases=4
new line.L_353 lineCode=uglv_240al_xlpe/nyl/pvc_ug_4w_bundled bus1=B627 bus2=B1013 length=0.0621771883023 units=km phases=4
new line.L_438 lineCode=ugsc_16cu_xlpe/nyl/pvc_ug_4w_bundled bus1=B1789 bus2=B408 length=0.0166801685383 units=km phases=4
new line.L_592 lineCode=ughv_400al_triplex_ug_4w_bundled bus1=B1847 bus2=B1201 length=7.47735676854e-05 units=km phases=4
new line.L_684 lineCode=ughv_400al_triplex_ug_4w_bundled bus1=B1115 bus2=B1267 length=0.000554125297317 units=km phases=4
new line.L_1177 lineCode=ughv_400al_triplex_ug_4w_bundled bus1=B3283 bus2=B3377 length=7.47735676854e-05 units=km phases=4
new line.L_1361 lineCode=uglv_240al_xlpe/nyl/pvc_ug_4w_bundled bus1=B2091 bus2=B2263 length=0.0394604402983 units=km phases=4
new line.L_1759 lineCode=ughv_400al_triplex_ug_4w_bundled bus1=B1115 bus2=B2342 length=0.000320893041571 units=km phases=4
new line.L_1854 lineCode=ughv_400al_triplex_ug_4w_bundled bus1=B2730 bus2=B1115 length=0.000244826657650 units=km phases=4
new line.L_1889 lineCode=uglv_240al_xlpe/nyl/pvc_ug_4w_bundled bus1=B2796 bus2=B2091 length=0.00421659288371 units=km phases=4
new line.L_2095 lineCode=uglv_240al_xlpe/nyl/pvc_ug_4w_bundled bus1=B2263 bus2=B408 length=0.0692638987308 units=km phases=4
new line.L_2808 lineCode=ughv_400al_triplex_ug_4w_bundled bus1=B1115 bus2=B2767 length=0.000255748683905 units=km phases=4
new line.L_3161 lineCode=ugsc_16cu_xlpe/nyl/pvc_ug_4w_bundled bus1=B1970 bus2=B408 length=0.0259349006536 units=km phases=4
new line.L_3640 lineCode=uglv_240al_xlpe/nyl/pvc_ug_4w_bundled bus1=B408 bus2=B1861 length=0.0351814286678 units=km phases=4
new line.L_3683 lineCode=ugsc_16cu_xlpe/nyl/pvc_ug_4w_bundled bus1=B150 bus2=B2091 length=0.0157049403258 units=km phases=4
new line.L_3759 lineCode=ugsc_16cu_xlpe/nyl/pvc_ug_4w_bundled bus1=B934 bus2=B2263 length=0.0189665792852 units=km phases=4
new line.L_3887 lineCode=ughv_400al_triplex_ug_4w_bundled bus1=B2581 bus2=B3 length=0.000255748683551 units=km phases=4
new line.L_4037 lineCode=ughv_400al_triplex_ug_4w_bundled bus1=B1115 bus2=B401 length=0.000328484325497 units=km phases=4
new line.L_4127 lineCode=ughv_400al_triplex_ug_4w_bundled bus1=B2581 bus2=B1382 length=0.000255619792058 units=km phases=4
new line.L_4204 lineCode=ugsc_16cu_xlpe/nyl/pvc_ug_4w_bundled bus1=B1537 bus2=B2263 length=0.0244931320421 units=km phases=4
new line.L_4662 lineCode=ugsc_16cu_xlpe/nyl/pvc_ug_4w_bundled bus1=B751 bus2=B1013 length=0.0570993644216 units=km phases=4
